Version 4
SHEET 1 880 680
WIRE 368 -288 320 -288
WIRE 368 -208 368 -288
WIRE 368 -96 368 -128
WIRE 608 -96 576 -96
WIRE 240 -32 96 -32
WIRE 608 0 608 -96
WIRE 96 16 96 -32
WIRE 240 80 240 -32
WIRE 608 112 608 80
WIRE 704 112 608 112
WIRE 160 128 -96 128
WIRE 608 128 608 112
WIRE 160 176 16 176
WIRE 400 176 336 176
WIRE 512 176 480 176
WIRE 544 176 512 176
WIRE -96 208 -96 128
WIRE 16 208 16 176
WIRE 512 256 512 176
WIRE -96 336 -96 288
WIRE 16 336 16 288
WIRE 240 336 240 224
WIRE 512 352 512 336
WIRE 608 352 608 224
WIRE 608 352 512 352
WIRE 512 384 512 352
FLAG -96 336 0
FLAG 16 336 0
FLAG 240 336 0
FLAG 96 16 0
FLAG 512 384 0
FLAG 368 -96 0
FLAG 320 -288 12V
IOPIN 320 -288 In
FLAG 576 -96 12V
IOPIN 576 -96 In
FLAG 704 112 ACC_CTL
IOPIN 704 112 Out
SYMBOL Digital\\dflop 240 80 R0
WINDOW 3 0 0 Invisible 0
SYMATTR InstName A1
SYMATTR Value Vhigh=5
SYMBOL voltage -96 192 R0
WINDOW 3 -366 185 Left 2
WINDOW 123 0 0 Left 0
WINDOW 39 0 0 Left 0
SYMATTR InstName V1
SYMATTR Value PULSE(0 5V 0 0 0 20ms 40ms 4)
SYMBOL voltage 16 192 R0
WINDOW 3 -166 262 Left 2
WINDOW 123 0 0 Left 0
WINDOW 39 0 0 Left 0
SYMATTR InstName V2
SYMATTR Value PULSE(0 5 0 0 0 10m 20m 1)
SYMBOL res 496 160 R90
WINDOW 0 0 56 VBottom 2
WINDOW 3 32 56 VTop 2
SYMATTR InstName R1
SYMATTR Value 100K
SYMBOL res 528 352 R180
WINDOW 0 36 76 Left 2
WINDOW 3 36 40 Left 2
SYMATTR InstName R2
SYMATTR Value 100K
SYMBOL res 624 96 R180
WINDOW 0 36 76 Left 2
WINDOW 3 36 40 Left 2
SYMATTR InstName R3
SYMATTR Value 100K
SYMBOL npn 544 128 R0
SYMATTR InstName Q1
SYMBOL voltage 368 -224 R0
WINDOW 123 0 0 Left 0
WINDOW 39 0 0 Left 0
SYMATTR InstName V3
SYMATTR Value 12V
TEXT -464 474 Left 2 !.tran 100ms
TEXT -224 248 Left 2 ;ACCENT
TEXT 56 248 Left 2 ;GLIDE
