Version 4
SHEET 1 1696 1188
WIRE 384 -448 368 -448
WIRE 384 -384 384 -448
WIRE 480 -384 384 -384
WIRE 576 -384 480 -384
WIRE 384 -352 384 -384
WIRE 480 -352 480 -384
WIRE 576 -352 576 -384
WIRE 48 -336 48 -432
WIRE 576 -224 576 -272
WIRE 784 -192 672 -192
WIRE 928 -192 864 -192
WIRE 1104 -192 992 -192
WIRE 256 -176 208 -176
WIRE 384 -176 384 -272
WIRE 384 -176 336 -176
WIRE 480 -176 480 -288
WIRE 480 -176 384 -176
WIRE 512 -176 480 -176
WIRE 576 -96 576 -128
WIRE 672 -96 672 -192
WIRE 672 -96 576 -96
WIRE 576 -80 576 -96
WIRE 1104 -80 1104 -112
WIRE 208 -48 208 -176
WIRE 336 -48 208 -48
WIRE 576 32 576 0
WIRE 784 48 720 48
WIRE 208 112 208 -48
WIRE 784 128 784 48
WIRE 784 128 704 128
WIRE 864 128 784 128
WIRE -32 160 -128 160
WIRE 96 160 48 160
WIRE 144 160 96 160
WIRE 704 176 704 128
WIRE 864 176 864 128
WIRE -128 208 -128 160
WIRE 96 208 96 160
WIRE 864 272 864 256
WIRE 992 272 864 272
WIRE 864 304 864 272
WIRE -128 336 -128 288
WIRE 96 336 96 288
WIRE 208 336 208 208
WIRE 336 352 336 -48
WIRE 432 352 336 352
WIRE 560 352 496 352
WIRE 704 352 704 256
WIRE 704 352 640 352
WIRE 800 352 704 352
WIRE 992 384 992 336
WIRE 1616 384 1616 224
WIRE 1616 384 1504 384
WIRE 1632 384 1616 384
WIRE 864 432 864 400
WIRE 1088 432 864 432
WIRE 1200 432 1152 432
WIRE 1328 432 1280 432
WIRE 1408 432 1328 432
WIRE 1440 432 1408 432
WIRE 864 448 864 432
WIRE 1328 464 1328 432
WIRE 1632 480 1632 384
WIRE 1504 528 1504 480
WIRE 1568 528 1504 528
WIRE 864 592 864 528
WIRE 1328 592 1328 528
WIRE 1632 640 1632 576
WIRE 1408 656 1408 432
WIRE 1584 704 1520 704
WIRE 1408 736 1088 736
WIRE 1520 800 1520 704
WIRE 1632 800 1632 736
WIRE 1632 800 1520 800
WIRE 1088 816 1088 736
WIRE 1152 816 1088 816
WIRE 1296 816 1232 816
WIRE 1632 848 1632 800
WIRE 1296 880 1296 816
WIRE 1056 944 1040 944
WIRE 1296 976 1296 944
WIRE 768 1040 768 944
WIRE 1056 1056 1056 944
WIRE 1072 1056 1056 1056
WIRE 1296 1056 1296 1040
WIRE 1296 1056 1152 1056
WIRE 1296 1072 1296 1056
WIRE 768 1136 768 1120
WIRE 1296 1168 1296 1136
FLAG 208 336 0
FLAG 96 336 0
FLAG -128 336 0
FLAG 576 32 0
FLAG 48 -256 0
FLAG 48 -432 12V
IOPIN 48 -432 In
FLAG 368 -448 12V
IOPIN 368 -448 In
FLAG 1104 -80 0
FLAG 864 592 0
FLAG 720 48 12V
IOPIN 720 48 In
FLAG 992 384 0
FLAG 1328 592 0
FLAG 1616 224 12V
IOPIN 1616 224 In
FLAG 1632 848 0
FLAG 1296 1168 0
FLAG 768 1136 0
FLAG 768 944 5.333V
IOPIN 768 944 In
FLAG 1040 944 5.333V
IOPIN 1040 944 In
SYMBOL npn 144 112 R0
SYMATTR InstName Q1
SYMBOL res 64 144 R90
WINDOW 0 0 56 VBottom 2
WINDOW 3 32 56 VTop 2
SYMATTR InstName R1
SYMATTR Value 22K
SYMBOL res 112 304 R180
WINDOW 0 36 76 Left 2
WINDOW 3 36 40 Left 2
SYMATTR InstName R2
SYMATTR Value 10K
SYMBOL voltage -128 192 R0
WINDOW 123 0 0 Left 0
WINDOW 39 0 0 Left 0
SYMATTR InstName V1
SYMATTR Value PULSE(0 5 0 0 0 30m 60m 5)
SYMBOL res 352 -192 R90
WINDOW 0 0 56 VBottom 2
WINDOW 3 32 56 VTop 2
SYMATTR InstName R3
SYMATTR Value 10K
SYMBOL res 368 -368 R0
SYMATTR InstName R4
SYMATTR Value 10K
SYMBOL res 560 -368 R0
SYMATTR InstName R5
SYMATTR Value 22
SYMBOL res 560 -96 R0
SYMATTR InstName R6
SYMATTR Value 10K
SYMBOL pnp 512 -128 M180
SYMATTR InstName Q2
SYMBOL cap 464 -352 R0
SYMATTR InstName C1
SYMATTR Value 10µf
SYMATTR SpiceLine V=16V
SYMBOL voltage 48 -352 R0
WINDOW 123 0 0 Left 0
WINDOW 39 0 0 Left 0
SYMATTR InstName V2
SYMATTR Value 12V
SYMBOL res 880 -208 R90
WINDOW 0 0 56 VBottom 2
WINDOW 3 32 56 VTop 2
SYMATTR InstName R7
SYMATTR Value 1K
SYMBOL diode 928 -176 R270
WINDOW 0 32 32 VTop 2
WINDOW 3 0 32 VBottom 2
SYMATTR InstName D1
SYMBOL res 1088 -208 R0
SYMATTR InstName R8
SYMATTR Value 1K
SYMBOL cap 432 368 R270
WINDOW 0 32 32 VTop 2
WINDOW 3 0 32 VBottom 2
SYMATTR InstName C2
SYMATTR Value 0.047µf
SYMBOL res 656 336 R90
WINDOW 0 0 56 VBottom 2
WINDOW 3 32 56 VTop 2
SYMATTR InstName R9
SYMATTR Value 10K
SYMBOL res 688 160 R0
SYMATTR InstName R10
SYMATTR Value 10K
SYMBOL res 848 160 R0
SYMATTR InstName R11
SYMATTR Value 22
SYMBOL cap 976 272 R0
SYMATTR InstName C3
SYMATTR Value 47µF
SYMBOL pnp 800 400 M180
SYMATTR InstName Q3
SYMBOL res 848 432 R0
SYMATTR InstName R12
SYMATTR Value 22K
SYMBOL diode 1088 448 R270
WINDOW 0 32 32 VTop 2
WINDOW 3 0 32 VBottom 2
SYMATTR InstName D2
SYMBOL res 1296 416 R90
WINDOW 0 0 56 VBottom 2
WINDOW 3 32 56 VTop 2
SYMATTR InstName R13
SYMATTR Value 100
SYMBOL cap 1312 464 R0
SYMATTR InstName C4
SYMATTR Value 1µF
SYMBOL npn 1440 384 R0
SYMATTR InstName Q4
SYMBOL npn 1568 480 R0
SYMATTR InstName Q5
SYMBOL njf 1584 640 R0
SYMATTR InstName J1
SYMBOL res 1392 640 R0
SYMATTR InstName R14
SYMATTR Value 68K
SYMBOL res 1248 800 R90
WINDOW 0 0 56 VBottom 2
WINDOW 3 32 56 VTop 2
SYMATTR InstName R15
SYMATTR Value 0.1K
SYMBOL diode 1280 880 R0
SYMATTR InstName D3
SYMBOL diode 1280 976 R0
SYMATTR InstName D4
SYMBOL diode 1280 1072 R0
SYMATTR InstName D5
SYMBOL voltage 768 1024 R0
WINDOW 123 0 0 Left 0
WINDOW 39 0 0 Left 0
SYMATTR InstName V3
SYMATTR Value 5.333V
SYMBOL res 1168 1040 R90
WINDOW 0 0 56 VBottom 2
WINDOW 3 32 56 VTop 2
SYMATTR InstName R16
SYMATTR Value 22K
TEXT -162 360 Left 2 !.tran 300ms
