Version 4
SHEET 1 1388 680
WIRE 656 -1296 624 -1296
WIRE 832 -1296 800 -1296
WIRE 624 -1232 624 -1296
WIRE 800 -1232 800 -1296
WIRE 208 -1120 128 -1120
WIRE 480 -1120 288 -1120
WIRE 624 -1088 624 -1152
WIRE 800 -1088 800 -1152
WIRE 352 -1040 304 -1040
WIRE 304 -976 304 -1040
WIRE 128 -960 128 -1120
WIRE 272 -960 128 -960
WIRE 480 -944 480 -1120
WIRE 480 -944 336 -944
WIRE 800 -944 480 -944
WIRE 176 -928 64 -928
WIRE 272 -928 176 -928
WIRE 64 -816 64 -848
WIRE 304 -816 304 -912
WIRE 272 -768 240 -768
WIRE 608 -768 576 -768
WIRE 176 -736 176 -928
WIRE 176 -736 32 -736
WIRE 240 -656 240 -768
WIRE 576 -656 576 -768
WIRE 32 -608 32 -736
WIRE 144 -608 32 -608
WIRE 400 -608 352 -608
WIRE 480 -608 400 -608
WIRE 800 -608 800 -944
WIRE 800 -608 688 -608
WIRE 144 -544 112 -544
WIRE 480 -544 448 -544
WIRE 400 -464 400 -608
WIRE 240 -448 240 -496
WIRE 576 -448 576 -496
WIRE 400 -368 400 -400
WIRE 112 -320 112 -544
WIRE 368 -320 112 -320
WIRE 448 -256 448 -544
WIRE 448 -256 112 -256
WIRE 480 -192 416 -192
WIRE 48 -160 32 -160
WIRE 416 -128 416 -192
WIRE 32 -96 32 -160
WIRE 368 -32 368 -320
WIRE 368 -32 352 -32
WIRE 416 -32 416 -48
WIRE 416 -32 368 -32
WIRE 32 16 32 -16
WIRE 112 16 112 -256
WIRE 112 16 32 16
WIRE 160 16 112 16
WIRE 288 16 240 16
WIRE 112 96 112 16
WIRE -112 144 -224 144
WIRE 48 144 -32 144
WIRE -224 176 -224 144
WIRE 112 224 112 192
WIRE 352 224 352 64
WIRE 352 224 112 224
WIRE 112 256 112 224
WIRE 352 256 352 224
FLAG 112 256 0
FLAG 352 256 0
FLAG 624 -1088 0
FLAG -224 256 0
FLAG 656 -1296 12V
IOPIN 656 -1296 Out
FLAG 48 -160 12V
IOPIN 48 -160 Out
FLAG 480 -192 12V
IOPIN 480 -192 Out
FLAG 352 -1040 12V
IOPIN 352 -1040 Out
FLAG 304 -816 0
FLAG 64 -816 0
FLAG 400 -368 0
FLAG 240 -448 0
FLAG 576 -448 0
FLAG 800 -1088 0
FLAG 832 -1296 5.333V
IOPIN 832 -1296 Out
FLAG 272 -768 12V
IOPIN 272 -768 Out
FLAG 608 -768 12V
IOPIN 608 -768 Out
SYMBOL npn 48 96 R0
SYMATTR InstName Q1
SYMBOL npn 288 -32 R0
SYMATTR InstName Q2
SYMBOL res 256 0 R90
WINDOW 0 0 56 VBottom 2
WINDOW 3 32 56 VTop 2
SYMATTR InstName R1
SYMATTR Value 1m
SYMBOL res 16 -112 R0
SYMATTR InstName R2
SYMATTR Value 100K
SYMBOL res 400 -144 R0
SYMATTR InstName R3
SYMATTR Value 100K
SYMBOL res -16 128 R90
WINDOW 0 0 56 VBottom 2
WINDOW 3 32 56 VTop 2
SYMATTR InstName R4
SYMATTR Value 100K
SYMBOL voltage 624 -1248 R0
WINDOW 123 0 0 Left 0
WINDOW 39 0 0 Left 0
SYMATTR InstName V1
SYMATTR Value 12V
SYMBOL voltage -224 160 R0
WINDOW 123 0 0 Left 0
WINDOW 39 0 0 Left 0
SYMATTR InstName V2
SYMATTR Value PULSE(0 5 0 0 0 200m 400m 1)
SYMBOL AutoGenerated\\CD4066 576 -608 R0
SYMATTR InstName U1
SYMBOL AutoGenerated\\CD4066 240 -608 R0
SYMATTR InstName U2
SYMBOL res 304 -1136 R90
WINDOW 0 0 56 VBottom 2
WINDOW 3 32 56 VTop 2
SYMATTR InstName R5
SYMATTR Value 2.2K
SYMBOL voltage 64 -944 R0
WINDOW 123 0 0 Left 0
WINDOW 39 0 0 Left 0
SYMATTR InstName V3
SYMATTR Value PULSE(0 5 0 0 0 50m 100m)
SYMBOL cap 384 -464 R0
SYMATTR InstName C1
SYMATTR Value 0.22µF
SYMBOL Opamps\\UniversalOpAmp 304 -944 R0
SYMATTR InstName U3
SYMBOL voltage 800 -1248 R0
WINDOW 123 0 0 Left 0
WINDOW 39 0 0 Left 0
SYMATTR InstName V4
SYMATTR Value 5.333V
TEXT -256 280 Left 2 !.tran 1000ms
